Version 4
SHEET 1 1636 680
WIRE 496 -352 384 -352
WIRE 576 -352 496 -352
WIRE 752 -352 672 -352
WIRE 800 -352 752 -352
WIRE 976 -352 800 -352
WIRE 1024 -352 976 -352
WIRE 1152 -352 1104 -352
WIRE 1296 -352 1232 -352
WIRE 1344 -352 1296 -352
WIRE 1392 -352 1344 -352
WIRE 704 -304 688 -304
WIRE 656 -288 656 -304
WIRE 688 -288 688 -304
WIRE 688 -288 656 -288
WIRE 384 -272 384 -352
WIRE 976 -272 976 -352
WIRE 1392 -272 1392 -352
WIRE 1296 -256 1296 -352
WIRE 704 -224 704 -240
WIRE 704 -224 656 -224
WIRE 656 -208 656 -224
WIRE 656 -192 656 -208
WIRE 384 -128 384 -192
WIRE 576 -128 512 -128
WIRE 624 -128 576 -128
WIRE 736 -128 688 -128
WIRE 752 -128 752 -352
WIRE 752 -128 736 -128
WIRE 976 -96 976 -208
WIRE 1296 -96 1296 -192
WIRE 1296 -96 976 -96
WIRE 1344 -96 1296 -96
WIRE 1392 -96 1392 -192
WIRE 1392 -96 1344 -96
WIRE 512 -80 512 -128
WIRE 1344 -80 1344 -96
WIRE 512 -64 512 -80
WIRE 624 -48 624 -64
WIRE 688 -48 688 -64
WIRE 688 0 688 -48
WIRE 512 48 512 0
WIRE 752 48 752 -128
WIRE 752 48 512 48
WIRE 48 160 -48 160
WIRE 112 160 48 160
WIRE 272 160 240 160
WIRE 624 160 624 -48
WIRE 624 160 272 160
WIRE -48 192 -48 160
WIRE -48 320 -48 272
FLAG -48 320 0
FLAG 1344 -80 0
FLAG 384 -128 0
FLAG 1344 -352 Vout
FLAG 688 0 0
FLAG 800 -352 Vsw
FLAG 496 -352 in
FLAG 272 160 c
FLAG 48 160 vc
FLAG 656 -288 g1
SYMBOL voltage -48 176 R0
WINDOW 123 0 0 Left 0
WINDOW 39 0 0 Left 0
SYMATTR InstName Vduty
SYMATTR Value 0.133
SYMBOL nmos 576 -304 R270
SYMATTR InstName M1
SYMATTR Value IRFZ44N
SYMBOL cap 1280 -256 R0
SYMATTR InstName C1
SYMATTR Value 680µF
SYMBOL res 1376 -288 R0
SYMATTR InstName Rload
SYMATTR Value 0.05ohm
SYMBOL ind 1008 -336 R270
WINDOW 0 32 56 VTop 2
WINDOW 3 5 56 VBottom 2
SYMATTR InstName L1
SYMATTR Value 4µH
SYMBOL res 1248 -368 R90
WINDOW 0 0 56 VBottom 2
WINDOW 3 32 56 VTop 2
SYMATTR InstName RL
SYMATTR Value 2mohm
SYMBOL voltage 384 -288 R0
SYMATTR InstName Vg
SYMATTR Value 12
SYMBOL res 640 -304 R0
WINDOW 0 -43 45 Left 2
WINDOW 3 -35 76 Left 2
SYMATTR InstName R1
SYMATTR Value 5
SYMBOL schottky 688 -304 R0
SYMATTR InstName D3
SYMATTR Value MBR735
SYMATTR Description Diode
SYMATTR Type diode
SYMBOL voltage 512 -96 R0
SYMATTR InstName Vdriver
SYMATTR Value 12
SYMBOL schottky 992 -208 R180
WINDOW 0 24 64 Left 2
WINDOW 3 24 0 Left 2
SYMATTR InstName D1
SYMATTR Value MBRB2545CT
SYMATTR Description Diode
SYMATTR Type diode
SYMBOL Driver 656 -112 R270
SYMATTR InstName U3
SYMBOL PWM 176 160 R0
SYMATTR InstName U4
TEXT 1216 72 Left 2 !.tran 0 2msec 0 20e-9 startup uic
TEXT 688 -440 Left 2 ;Buck converter power stage
TEXT 760 -72 Left 2 ;Transistor \ngate \ndrivers
TEXT 64 256 Left 2 ;Pulse-width modulator
TEXT 1200 32 Left 2 ;Simulation directives
TEXT 368 -432 Left 2 !.lib switching.lib
TEXT 1216 112 Left 2 !.options reltol=0.0005
