Version 4
SHEET 1 1964 680
WIRE 1200 -512 304 -512
WIRE 576 -352 384 -352
WIRE 752 -352 672 -352
WIRE 1424 -352 752 -352
WIRE 1456 -352 1424 -352
WIRE 1552 -352 1536 -352
WIRE 1696 -352 1632 -352
WIRE 1744 -352 1696 -352
WIRE 1792 -352 1744 -352
WIRE 304 -304 304 -512
WIRE 384 -304 384 -352
WIRE 384 -304 304 -304
WIRE 400 -304 384 -304
WIRE 704 -304 688 -304
WIRE 656 -288 656 -304
WIRE 688 -288 688 -304
WIRE 688 -288 656 -288
WIRE 384 -272 384 -304
WIRE 1200 -272 1200 -512
WIRE 1424 -272 1424 -352
WIRE 1792 -272 1792 -352
WIRE 1696 -256 1696 -352
WIRE 704 -224 704 -240
WIRE 704 -224 656 -224
WIRE 1120 -224 992 -224
WIRE 1136 -224 1120 -224
WIRE 1200 -224 1200 -272
WIRE 656 -208 656 -224
WIRE 656 -192 656 -208
WIRE 1280 -192 1264 -192
WIRE 1296 -192 1280 -192
WIRE 1376 -192 1360 -192
WIRE 752 -176 752 -352
WIRE 752 -176 544 -176
WIRE 1120 -160 1072 -160
WIRE 1136 -160 1120 -160
WIRE 1360 -160 1360 -192
WIRE 1376 -160 1360 -160
WIRE 1296 -144 1296 -192
WIRE 1312 -144 1296 -144
WIRE 1376 -144 1376 -160
WIRE 480 -128 480 -176
WIRE 576 -128 480 -128
WIRE 624 -128 576 -128
WIRE 736 -128 688 -128
WIRE 752 -128 752 -176
WIRE 752 -128 736 -128
WIRE 1200 -112 1200 -160
WIRE 400 -64 400 -304
WIRE 480 -64 400 -64
WIRE 624 -48 624 -64
WIRE 688 -48 688 -64
WIRE 688 0 688 -48
WIRE 1200 16 1200 -112
WIRE 1424 16 1424 -176
WIRE 1424 16 1200 16
WIRE 384 64 384 -192
WIRE 1424 64 1424 16
WIRE 1424 64 384 64
WIRE 1696 64 1696 -192
WIRE 1696 64 1424 64
WIRE 1792 64 1792 -192
WIRE 1792 64 1696 64
WIRE 624 144 624 -48
WIRE 624 144 432 144
WIRE 48 160 -48 160
WIRE 112 160 48 160
WIRE 272 160 240 160
WIRE 352 160 272 160
WIRE 992 176 992 -224
WIRE 992 176 432 176
WIRE -48 192 -48 160
WIRE -48 320 -48 272
FLAG -48 320 0
FLAG 1744 -352 Vout
FLAG 688 0 0
FLAG 384 -352 in
FLAG 272 160 c
FLAG 48 160 vc
FLAG 656 -288 g1
FLAG 1072 -160 0
FLAG 1360 -192 g2
FLAG 1424 -352 Vsw
FLAG 1424 64 0
SYMBOL voltage -48 176 R0
WINDOW 123 0 0 Left 0
WINDOW 39 0 0 Left 0
SYMATTR InstName Vduty
SYMATTR Value 0.11
SYMBOL nmos 576 -304 R270
SYMATTR InstName M1
SYMATTR Value IRFZ44N
SYMBOL cap 1680 -256 R0
SYMATTR InstName C1
SYMATTR Value 680µF
SYMBOL res 1776 -288 R0
SYMATTR InstName Rload
SYMATTR Value 0.05ohm
SYMBOL ind 1440 -336 R270
WINDOW 0 32 56 VTop 2
WINDOW 3 5 56 VBottom 2
SYMATTR InstName L1
SYMATTR Value 4µH
SYMBOL res 1648 -368 R90
WINDOW 0 0 56 VBottom 2
WINDOW 3 32 56 VTop 2
SYMATTR InstName RL
SYMATTR Value 2mohm
SYMBOL voltage 384 -288 R0
SYMATTR InstName Vg
SYMATTR Value 12
SYMBOL res 640 -304 R0
WINDOW 0 -43 45 Left 2
WINDOW 3 -35 76 Left 2
SYMATTR InstName R1
SYMATTR Value 10
SYMBOL schottky 688 -304 R0
SYMATTR InstName D3
SYMATTR Value MBR735
SYMATTR Description Diode
SYMATTR Type diode
SYMBOL Driver 656 -112 R270
WINDOW 39 -16 51 Left 2
SYMATTR InstName U3
SYMBOL PWM 176 160 R0
SYMATTR InstName U4
SYMBOL nmos 1376 -272 R0
SYMATTR InstName M2
SYMATTR Value IRFH5004
SYMBOL res 1376 -208 R90
WINDOW 0 0 56 VBottom 2
WINDOW 3 1 72 VTop 2
SYMATTR InstName R2
SYMATTR Value 5
SYMBOL schottky 1376 -160 R90
WINDOW 0 28 0 VBottom 2
WINDOW 3 32 32 VTop 2
SYMATTR InstName D1
SYMATTR Value MBR735
SYMATTR Description Diode
SYMATTR Type diode
SYMBOL Driver 1184 -192 R0
WINDOW 39 -10 49 Left 2
SYMATTR InstName U5
SYMBOL dead_time 384 160 R0
SYMATTR InstName U6
SYMBOL cap 544 -192 R90
WINDOW 0 0 32 VBottom 2
WINDOW 3 32 32 VTop 2
SYMATTR InstName C2
SYMATTR Value 10µF
SYMBOL schottky 496 -64 R180
WINDOW 0 24 64 Left 2
WINDOW 3 24 0 Left 2
SYMATTR InstName D2
SYMATTR Value 1N5817
SYMATTR Description Diode
SYMATTR Type diode
TEXT 1576 240 Left 2 !.tran 0 2msec 0 20e-9 startup uic
TEXT 688 -440 Left 2 ;Buck converter power stage
TEXT 760 -72 Left 2 ;Transistor \ngate \ndrivers
TEXT 64 256 Left 2 ;Pulse-width modulator
TEXT 1584 208 Left 2 ;Simulation directives
TEXT 368 -432 Left 2 !.lib switching.lib
TEXT 1576 280 Left 2 !.options reltol=0.0005
TEXT 1144 -88 VRight 2 ;Transistor \ngate \ndrivers
