Version 4
SHEET 1 1636 680
WIRE 48 -352 16 -352
WIRE 464 -352 384 -352
WIRE 640 -352 560 -352
WIRE 688 -352 640 -352
WIRE 976 -352 688 -352
WIRE 1024 -352 976 -352
WIRE 1152 -352 1104 -352
WIRE 1296 -352 1232 -352
WIRE 1344 -352 1296 -352
WIRE 1392 -352 1344 -352
WIRE 592 -304 576 -304
WIRE 544 -288 544 -304
WIRE 576 -288 576 -304
WIRE 576 -288 544 -288
WIRE 976 -288 976 -352
WIRE 384 -272 384 -352
WIRE 976 -272 976 -288
WIRE 1392 -272 1392 -352
WIRE 112 -256 112 -352
WIRE 288 -256 112 -256
WIRE 1296 -256 1296 -352
WIRE 112 -240 112 -256
WIRE 592 -224 592 -240
WIRE 592 -224 544 -224
WIRE 544 -208 544 -224
WIRE 928 -208 880 -208
WIRE 32 -192 -208 -192
WIRE 976 -192 976 -208
WIRE 928 -176 912 -176
WIRE 544 -160 544 -208
WIRE 544 -160 192 -160
WIRE 880 -160 880 -208
WIRE 912 -160 912 -176
WIRE 912 -160 880 -160
WIRE 32 -128 -112 -128
WIRE 928 -96 928 -112
WIRE 928 -96 880 -96
WIRE 976 -96 976 -192
WIRE 1296 -96 1296 -192
WIRE 1296 -96 976 -96
WIRE 1344 -96 1296 -96
WIRE 1392 -96 1392 -192
WIRE 1392 -96 1344 -96
WIRE -112 -80 -112 -128
WIRE 880 -80 880 -96
WIRE 1344 -80 1344 -96
WIRE 112 -16 112 -80
WIRE 288 -16 288 -192
WIRE 288 -16 112 -16
WIRE 640 -16 640 -352
WIRE 640 -16 288 -16
WIRE -208 32 -208 -192
WIRE 112 32 -208 32
WIRE 768 96 768 -32
WIRE 112 112 112 32
WIRE 112 112 48 112
WIRE -272 128 -368 128
WIRE -208 128 -272 128
WIRE -32 128 -80 128
WIRE 688 144 48 144
WIRE -368 160 -368 128
WIRE 880 176 880 -80
WIRE 880 176 848 176
WIRE 688 208 624 208
WIRE 624 256 624 208
WIRE -368 288 -368 240
WIRE 768 320 768 256
FLAG -368 288 0
FLAG 1344 -80 0
FLAG 384 -192 0
FLAG 1344 -352 Vout
FLAG 688 -352 Vsw
FLAG 384 -352 in
FLAG -272 128 vc
FLAG 544 -288 g1
FLAG 880 -160 g1
FLAG 624 256 0
FLAG -112 -80 0
FLAG 768 320 0
FLAG 848 -32 0
FLAG -64 -352 0
SYMBOL voltage -368 144 R0
SYMATTR InstName Vduty
SYMATTR Value 0.1
SYMBOL nmos 464 -304 R270
SYMATTR InstName M1
SYMATTR Value IRFZ44N
SYMBOL cap 1280 -256 R0
SYMATTR InstName C1
SYMATTR Value 680µF
SYMBOL res 1376 -288 R0
SYMATTR InstName Rload
SYMATTR Value 0.05ohm
SYMBOL ind 1008 -336 R270
WINDOW 0 32 56 VTop 2
WINDOW 3 5 56 VBottom 2
SYMATTR InstName L1
SYMATTR Value 4µH
SYMBOL res 1248 -368 R90
WINDOW 0 0 56 VBottom 2
WINDOW 3 32 56 VTop 2
SYMATTR InstName RL
SYMATTR Value 2mohm
SYMBOL voltage 384 -288 R0
SYMATTR InstName Vg
SYMATTR Value 12
SYMBOL res 528 -304 R0
WINDOW 0 -43 45 Left 2
WINDOW 3 -35 76 Left 2
SYMATTR InstName R1
SYMATTR Value 5
SYMBOL schottky 576 -304 R0
SYMATTR InstName D3
SYMATTR Value MBR735
SYMATTR Description Diode
SYMATTR Type diode
SYMBOL Driver 96 -160 R0
WINDOW 39 73 61 Left 2
SYMATTR InstName U3
SYMBOL PWM -144 128 R0
SYMATTR InstName U4
SYMBOL dead_time 0 128 R0
SYMATTR InstName U5
SYMBOL nmos 928 -288 R0
SYMATTR InstName M2
SYMATTR Value IRFZ44N
SYMBOL res 864 -176 R0
WINDOW 0 -43 45 Left 2
WINDOW 3 -35 76 Left 2
SYMATTR InstName R2
SYMATTR Value 5
SYMBOL schottky 912 -176 R0
SYMATTR InstName D1
SYMATTR Value MBR735
SYMATTR Description Diode
SYMATTR Type diode
SYMBOL Driver 752 176 R0
WINDOW 39 73 61 Left 2
SYMATTR InstName U6
SYMBOL voltage 32 -352 R90
WINDOW 0 -32 56 VBottom 2
WINDOW 3 32 56 VTop 2
SYMATTR InstName Vdriver1
SYMATTR Value 12
SYMBOL voltage 752 -32 R270
WINDOW 0 32 56 VTop 2
WINDOW 3 -32 56 VBottom 2
SYMATTR InstName Vg1
SYMATTR Value 12
SYMBOL cap 272 -256 R0
WINDOW 3 33 71 Left 2
SYMATTR InstName C2
SYMBOL diode 48 -368 M90
WINDOW 0 0 32 VBottom 2
WINDOW 3 32 32 VTop 2
SYMATTR InstName D2
TEXT 1216 72 Left 2 !.tran 0 2msec 0 20e-9 startup uic
TEXT 560 -440 Left 2 ;Buck converter power stage
TEXT 648 -72 Left 2 ;Transistor \ngate \ndrivers
TEXT -256 224 Left 2 ;Pulse-width modulator
TEXT 1200 32 Left 2 ;Simulation directives
TEXT 256 -432 Left 2 !.lib switching.lib
TEXT 1216 112 Left 2 !.options reltol=0.0005
