Version 4
SHEET 1 1636 680
WIRE 320 -544 144 -544
WIRE 576 -544 384 -544
WIRE 704 -544 576 -544
WIRE 1168 -544 992 -544
WIRE 1216 -544 1168 -544
WIRE 1264 -544 1216 -544
WIRE 704 -528 704 -544
WIRE 576 -496 576 -544
WIRE 816 -464 784 -464
WIRE 912 -464 880 -464
WIRE 992 -464 992 -544
WIRE 1264 -464 1264 -544
WIRE 496 -448 464 -448
WIRE 1168 -448 1168 -544
WIRE 656 -416 640 -416
WIRE 784 -416 784 -464
WIRE 784 -416 656 -416
WIRE 496 -384 480 -384
WIRE 912 -384 912 -464
WIRE 944 -384 912 -384
WIRE 784 -368 784 -416
WIRE 816 -368 784 -368
WIRE 912 -368 912 -384
WIRE 912 -368 896 -368
WIRE 480 -288 480 -384
WIRE 512 -288 480 -288
WIRE 576 -288 576 -336
WIRE 704 -288 704 -464
WIRE 704 -288 576 -288
WIRE 992 -288 992 -368
WIRE 992 -288 704 -288
WIRE 1168 -288 1168 -384
WIRE 1216 -288 1168 -288
WIRE 1264 -288 1264 -384
WIRE 1264 -288 1216 -288
WIRE 512 -272 512 -288
WIRE 1216 -272 1216 -288
WIRE 144 -208 144 -544
WIRE 144 -208 0 -208
WIRE 224 -208 144 -208
WIRE 352 -208 304 -208
WIRE 944 -208 432 -208
WIRE 992 -208 992 -288
WIRE 992 -208 944 -208
WIRE 0 -128 0 -208
WIRE 144 -128 144 -208
WIRE 672 -128 144 -128
WIRE 992 -96 992 -208
WIRE 672 -80 672 -128
WIRE 832 -64 800 -64
WIRE 912 -64 896 -64
WIRE 928 -64 912 -64
WIRE 592 -32 432 -32
WIRE 928 -16 928 -64
WIRE 944 -16 928 -16
WIRE 800 0 800 -64
WIRE 800 0 752 0
WIRE 832 0 800 0
WIRE 928 0 928 -16
WIRE 928 0 912 0
WIRE 0 16 0 -48
WIRE 592 32 544 32
WIRE 544 112 544 32
WIRE 432 144 432 -32
WIRE 432 144 400 144
WIRE 48 160 -48 160
WIRE 112 160 48 160
WIRE 272 160 240 160
WIRE 320 160 272 160
WIRE 464 176 464 -448
WIRE 464 176 400 176
WIRE -48 192 -48 160
WIRE 672 208 672 80
WIRE 832 208 672 208
WIRE 992 208 992 0
WIRE 992 208 832 208
WIRE 832 240 832 208
WIRE -48 320 -48 272
FLAG -48 320 0
FLAG 1216 -272 0
FLAG 0 16 0
FLAG 1216 -544 Vout
FLAG 272 160 c
FLAG 48 160 vc
FLAG 832 240 0
FLAG 544 112 0
FLAG 944 -208 Vsw
FLAG 912 -64 g1
FLAG 512 -272 0
SYMBOL voltage -48 176 R0
SYMATTR InstName Vduty
SYMATTR Value 0.5
SYMBOL nmos 944 -96 R0
SYMATTR InstName M1
SYMATTR Value IRFZ44N
SYMBOL cap 1152 -448 R0
SYMATTR InstName C1
SYMATTR Value 100µF
SYMBOL res 1248 -480 R0
SYMATTR InstName Rload
SYMATTR Value 12ohm
SYMBOL ind 208 -192 R270
WINDOW 0 32 56 VTop 2
WINDOW 3 5 56 VBottom 2
SYMATTR InstName L1
SYMATTR Value 60µH
SYMBOL res 448 -224 R90
WINDOW 0 0 56 VBottom 2
WINDOW 3 32 56 VTop 2
SYMATTR InstName RL
SYMATTR Value 2mohm
SYMBOL voltage 0 -144 R0
WINDOW 123 0 0 Left 2
WINDOW 39 0 0 Left 2
SYMATTR InstName Vg
SYMATTR Value 12
SYMBOL res 928 -16 R90
WINDOW 0 0 56 VBottom 2
WINDOW 3 32 56 VTop 2
SYMATTR InstName R1
SYMATTR Value 10ohm
SYMBOL Driver 656 0 R0
SYMATTR InstName U1
SYMATTR SpiceLine Imax=6A
SYMBOL PWM 176 160 R0
SYMATTR InstName U2
SYMATTR SpiceLine2 Dmin=0, Dmax=0.9, Voffset=0
SYMBOL schottky 896 -80 R90
WINDOW 0 0 32 VBottom 2
WINDOW 3 32 32 VTop 2
SYMATTR InstName D3
SYMATTR Value MBR735
SYMATTR Description Diode
SYMATTR Type diode
SYMBOL Driver 560 -416 R0
SYMATTR InstName U3
SYMATTR SpiceLine Imax=6A
SYMBOL nmos 944 -464 R0
SYMATTR InstName M2
SYMATTR Value IRFZ44N
SYMBOL schottky 880 -480 R90
WINDOW 0 0 32 VBottom 2
WINDOW 3 32 32 VTop 2
SYMATTR InstName D2
SYMATTR Value MBR735
SYMATTR Description Diode
SYMATTR Type diode
SYMBOL res 912 -384 R90
WINDOW 0 0 56 VBottom 2
WINDOW 3 32 56 VTop 2
SYMATTR InstName R2
SYMATTR Value 5ohm
SYMBOL cap 688 -528 R0
SYMATTR InstName C2
SYMATTR Value 10µF
SYMBOL dead_time 352 160 R0
SYMATTR InstName U4
SYMBOL schottky 320 -528 R270
WINDOW 0 32 32 VTop 2
WINDOW 3 0 32 VBottom 2
SYMATTR InstName D1
SYMATTR Value MBR735
SYMATTR Description Diode
SYMATTR Type diode
TEXT 1096 168 Left 2 !.tran 0 10msec 0 20e-9 UIC
TEXT 856 -600 Left 2 ;Synchronous boost converter power stage
TEXT 600 256 Left 2 ;Transistor \ngate \ndriver
TEXT 120 264 Left 2 ;Pulse-width\nmodulator
TEXT 1080 128 Left 2 ;Simulation directives
TEXT 1080 56 Left 2 !.lib switching.lib
TEXT 1096 208 Left 2 !.options reltol=0.0005\n.ic V(Vout)=24
TEXT 312 264 Left 2 ;Deadtime\ngenerator
TEXT 440 -616 Left 2 ;High side driver\nwith bootstrap power supply
