Version 4
SHEET 1 1616 680
WIRE 576 -352 384 -352
WIRE 752 -352 672 -352
WIRE 800 -352 752 -352
WIRE 848 -352 800 -352
WIRE 880 -352 848 -352
WIRE 1008 -352 960 -352
WIRE 1152 -352 1088 -352
WIRE 1200 -352 1152 -352
WIRE 1248 -352 1200 -352
WIRE 656 -288 656 -304
WIRE 384 -272 384 -352
WIRE 1248 -272 1248 -352
WIRE 1152 -256 1152 -352
WIRE 848 -240 848 -352
WIRE 656 -192 656 -208
WIRE 384 -128 384 -192
WIRE 624 -128 512 -128
WIRE 752 -128 752 -352
WIRE 752 -128 688 -128
WIRE 848 -96 848 -176
WIRE 1152 -96 1152 -192
WIRE 1152 -96 848 -96
WIRE 1200 -96 1152 -96
WIRE 1248 -96 1248 -192
WIRE 1248 -96 1200 -96
WIRE 1200 -80 1200 -96
WIRE 512 -64 512 -128
WIRE 688 0 688 -64
WIRE 512 48 512 16
WIRE 752 48 752 -128
WIRE 752 48 512 48
WIRE 320 208 208 208
WIRE 368 208 320 208
WIRE 544 208 496 208
WIRE 624 208 624 -64
WIRE 624 208 544 208
WIRE 208 240 208 208
WIRE 208 368 208 320
FLAG 208 368 0
FLAG 1200 -80 0
FLAG 384 -128 0
FLAG 1200 -352 Vout
FLAG 688 0 0
FLAG 800 -352 Vsw
FLAG 320 208 vc
FLAG 544 208 c
SYMBOL voltage 208 224 R0
SYMATTR InstName Vduty
SYMATTR Value 0.4
SYMBOL voltage 512 -80 R0
WINDOW 0 -234 55 Left 2
SYMATTR InstName V_driver_supply
SYMATTR Value 12
SYMBOL diode 864 -176 R180
WINDOW 0 -42 64 Left 2
WINDOW 3 -160 15 Left 2
SYMATTR InstName D1
SYMATTR Value RF1601NS2D
SYMBOL nmos 576 -304 R270
SYMATTR InstName M1
SYMATTR Value IRFS4010
SYMBOL cap 1136 -256 R0
SYMATTR InstName C1
SYMATTR Value 22µF
SYMBOL res 1232 -288 R0
SYMATTR InstName Rload
SYMATTR Value 5ohm
SYMBOL ind 864 -336 R270
WINDOW 0 32 56 VTop 2
WINDOW 3 5 56 VBottom 2
SYMATTR InstName L1
SYMATTR Value 40µH
SYMBOL res 1104 -368 R90
WINDOW 0 0 56 VBottom 2
WINDOW 3 32 56 VTop 2
SYMATTR InstName RL
SYMATTR Value 100mohm
SYMBOL voltage 384 -288 R0
SYMATTR InstName Vg
SYMATTR Value 24
SYMBOL res 640 -304 R0
WINDOW 0 -43 45 Left 2
WINDOW 3 -35 76 Left 2
SYMATTR InstName R1
SYMATTR Value 5
SYMBOL Driver 656 -112 R270
SYMATTR InstName U1
SYMBOL PWM 432 208 R0
SYMATTR InstName U2
SYMATTR SpiceLine2 Dmin=0, Dmax=0.9, Voffset=0
TEXT 1072 72 Left 2 !.tran 0 5msec 0 20e-9 startup uic
TEXT 688 -440 Left 2 ;Buck converter power stage
TEXT 640 72 Left 2 ;Transistor gate drive circuit
TEXT 320 304 Left 2 ;Pulse-width modulator
TEXT 1056 32 Left 2 ;Simulation directives
TEXT 368 -432 Left 2 !.lib switching.lib
TEXT 1072 112 Left 2 !.options reltol=0.0005
